/batch
/config,noeldb,1     ! force off writing results to database
*get,_wallstrt,active,,time,wall
! ANSYS input file written by Workbench version 18.2 RELEASE
! File used for geometry attach: D:\Code\Mechanical\AnSys_Tutorials\2D_Conduction_files\dp0\SYS\DM\SYS.scdoc
/title,2D_Conduction--Steady-State Thermal (A5)
*DIM,_wb_ProjectScratch_dir,string,248
_wb_ProjectScratch_dir(1) = 'D:\Code\Mechanical\AnSys_Tutorials\_ProjectScratch\ScrFB98\'
*DIM,_wb_SolverFiles_dir,string,248
_wb_SolverFiles_dir(1) = 'D:\Code\Mechanical\AnSys_Tutorials\2D_Conduction_files\dp0\SYS\MECH\'
*DIM,_wb_userfiles_dir,string,248
_wb_userfiles_dir(1) = 'D:\Code\Mechanical\AnSys_Tutorials\2D_Conduction_files\user_files\'
/com,--- Data in consistent MKS units. See Solving Units in the help system for more information.
/units,MKS
/nopr
/wb,file,start              !  signify a WB generated input file
/prep7
! Turn off shape checking because checks already performed inside WB mesher.
! See help system for more information.
SHPP,OFF,,NOWARN
/nolist
etcon,set             ! allow ANSYS to choose best KEYOP's for 180x elements
/com,*********** Nodes for the whole assembly ***********
nblock,3,,133
(1i9,3e20.9e3)
        1    0.000000000E+000    2.000000000E+000    0.000000000E+000
        2    0.000000000E+000    0.000000000E+000    0.000000000E+000
        3    1.000000000E+000    0.000000000E+000    0.000000000E+000
        4    1.000000000E+000    2.000000000E+000    0.000000000E+000
        5    7.500000000E-001    2.500000000E-001    0.000000000E+000
        6    5.000000000E-001    2.500000000E-001    0.000000000E+000
        7    2.500000000E-001    2.500000000E-001    0.000000000E+000
        8    7.500000000E-001    5.000000000E-001    0.000000000E+000
        9    5.000000000E-001    5.000000000E-001    0.000000000E+000
       10    2.500000000E-001    5.000000000E-001    0.000000000E+000
       11    7.500000000E-001    7.500000000E-001    0.000000000E+000
       12    5.000000000E-001    7.500000000E-001    0.000000000E+000
       13    2.500000000E-001    7.500000000E-001    0.000000000E+000
       14    7.500000000E-001    1.000000000E+000    0.000000000E+000
       15    5.000000000E-001    1.000000000E+000    0.000000000E+000
       16    2.500000000E-001    1.000000000E+000    0.000000000E+000
       17    7.500000000E-001    1.250000000E+000    0.000000000E+000
       18    5.000000000E-001    1.250000000E+000    0.000000000E+000
       19    2.500000000E-001    1.250000000E+000    0.000000000E+000
       20    7.500000000E-001    1.500000000E+000    0.000000000E+000
! ... 102 like lines cut
/wb,elem,start            !  set before creation of elements
/com,*********** Elements for Body 1 "SYS\Surface" ***********
et,1,77
keyo,1,3,3
eblock,19,solid,,32
(19i9)
        1        1        1        1        0        0        0        0        8        0        1       29        5       38        3       56       57       51       50
        1        1        1        1        0        0        0        0        8        0        2       30        8        5       29       66       55       56      108
        1        1        1        1        0        0        0        0        8        0        3       31       11        8       30       73       65       66      109
        1        1        1        1        0        0        0        0        8        0        4       32       14       11       31       80       72       73      110
        1        1        1        1        0        0        0        0        8        0        5       33       17       14       32       87       79       80      111
        1        1        1        1        0        0        0        0        8        0        6       34       20       17       33       94       86       87      112
        1        1        1        1        0        0        0        0        8        0        7       35       23       20       34      101       93       94      113
        1        1        1        1        0        0        0        0        8        0        8        4       26       23       35       52      100      101       53
        1        1        1        1        0        0        0        0        8        0        9        5        6       37       38       54       60      115       57
        1        1        1        1        0        0        0        0        8        0       10        8        9        6        5       64       59       54       55
        1        1        1        1        0        0        0        0        8        0       11       11       12        9        8       71       68       64       65
        1        1        1        1        0        0        0        0        8        0       12       14       15       12       11       78       75       71       72
        1        1        1        1        0        0        0        0        8        0       13       17       18       15       14       85       82       78       79
        1        1        1        1        0        0        0        0        8        0       14       20       21       18       17       92       89       85       86
        1        1        1        1        0        0        0        0        8        0       15       23       24       21       20       99       96       92       93
        1        1        1        1        0        0        0        0        8        0       16       26       27       24       23      106      103       99      100
        1        1        1        1        0        0        0        0        8        0       17        6        7       36       37       58       62      114       60
        1        1        1        1        0        0        0        0        8        0       18        9       10        7        6       67       61       58       59
        1        1        1        1        0        0        0        0        8        0       19       12       13       10        9       74       69       67       68
        1        1        1        1        0        0        0        0        8        0       20       15       16       13       12       81       76       74       75
! ... 13 like lines cut
!Material Id = {0317C42B-9AD4-4000-B613-55CF9EECA456}
/wb,elem,end               !  done creating elements
/com,*********** Send User Defined Coordinate System(s) ***********
csys,0
toffst,273.15,  ! Temperature offset from absolute zero
/wb,mat,start              !  starting to send materials
/com,*********** Send Materials ***********
MP,KXX,1,1,	! W m^-1 C^-1

/wb,mat,end                !  done sending materials
/com,*********** Send Sheet Properties ***********
r,1,1.
!************************* Model Summary ********************
!SYS\Surface,	Go Big Red,	matid,	1
!************************* End Model Summary ********************
! get the diagonal of the bounding box. Needed later for other things
*get,_xmin,node,,mnloc,x
*get,_ymin,node,,mnloc,y
*get,_zmin,node,,mnloc,z
*get,_xmax,node,,mxloc,x
*get,_ymax,node,,mxloc,y
*get,_zmax,node,,mxloc,z
_ASMDIAG=(_xmax-_xmin)*(_xmax-_xmin)+(_ymax-_ymin)*(_ymax-_ymin)+(_zmax-_zmin)*(_zmax-_zmin)
_ASMDIAG=SQRT(_ASMDIAG)
/wb,contact,start          !  starting to send contact
/wb,contact,end            !  done creating contacts
/golist
/wb,load,start             !  starting to send loads
/com,*********** Define Temperature Constraint ***********
CMBLOCK,_CM34   ,NODE,        9
(8i10)
         2         3        36        37        38        48        51       114
       115

*DIM,_loadvari34,TABLE,2,1,1,TIME,
! Time values
_loadvari34(1,0,1) = 0.
_loadvari34(2,0,1) = 1.
! Load values
_loadvari34(1,1,1) = 22.
_loadvari34(2,1,1) = 1.

fcum,add                   ! add nodal forces up (needed in case have loads on the same edge,vertex)
fcum                       ! reset default on fcum command since done sending WB F loads
/com,*********** Create "Convection" ***********
et,2,151
keyop,2,3,10   !get plane option and thickness from underlying element
eblock,10,,,8
(15i9)
       33        2        2        2        0       29        3       50
       34        2        2        2        0       30       29      108
       35        2        2        2        0       31       30      109
       36        2        2        2        0       32       31      110
       37        2        2        2        0       33       32      111
       38        2        2        2        0       34       33      112
       39        2        2        2        0       35       34      113
       40        2        2        2        0        4       35       53
-1
esel,s,type,,2
keyop,2,8,2.
keyop,2,13,0.

*DIM,_convvari37,TABLE,2,1,1,TIME,
! Time values
_convvari37(1,0,1) = 0.
_convvari37(2,0,1) = 1.
! Load values
_convvari37(1,1,1) = 0.
_convvari37(2,1,1) = 5.


*DIM,_loadvari37,TABLE,2,1,1,TIME,
! Time values
_loadvari37(1,0,1) = 0.
_loadvari37(2,0,1) = 1.
! Load values
_loadvari37(1,1,1) = 22.
_loadvari37(2,1,1) = 0.

esel,all
/com,***************** Define Uniform Initial temperature ***************
tunif,22.
/gst,on,on
fini
*get,_numnode,node,0,count
*get,_numelem,elem,0,count
*get, _MAXELEMNUM, elem, 0, NUM, MAX
*get, _MAXNODENUM, node, 0, NUM, MAX
*get, _MAXELEMTYPE, etyp, 0, NUM, MAX
*get, _MAXREALCONST, real, 0, NUM, MAX
/go
/wb,load,end               !  done creating loads
/com,--- Number of total nodes = %_numnode%
/com,--- Number of contact elements = 8
/com,--- Number of spring elements = 0
/com,--- Number of bearing elements = 0
/com,--- Number of solid elements = 32
/com,--- Number of condensed parts = 0
/com,--- Number of total elements = %_numelem%
*get,_wallbsol,active,,time,wall
/com,****************************************************************************
/com,*************************    SOLUTION       ********************************
/com,****************************************************************************
/solu
antype,0                   ! static analysis
!eqsl,sparse               ! using sparse solver which is default so no eqsl command needed
cntr,print,1               ! print out contact info and also make no initial contact an error
rescontrol,,none                 ! Do not keep any restart files
dmpoption,emat,no             ! Don't combine emat file for DANSYS
dmpoption,esav,no             ! Don't combine esav file for DANSYS
/com,****************************************************
/com,******************* SOLVE FOR LS 1 OF 1 ****************
d,_CM34,temp,%_loadvari34%
esel,s,type,,2
nsle
sf,all,conv,%_convvari37%,%_loadvari37%
nsel,all
esel,all
autots,on
nsub,1,10,1
time,1.
outres,erase
outres,all,none
outres,nsol,all
outres,rsol,all
outres,fflux,all
/nopr
esel,s,mat,,2
cm,_elmisc,elem
esel,all
/gopr
outres,misc,all,_elmisc
cnvtol,heat,,.001,,1.e-006        ! Program Controlled. Set MINREF equivalent of 1e-6 Watts
! *********** WB SOLVE COMMAND ***********
! check interactive state
*get,ANSINTER_,active,,int
*if,ANSINTER_,ne,0,then
/eof
*endif
solve
/com *************** Write FE CONNECTORS ********* 
CEWRITE,file,ce,,INTE
/com,****************************************************
/com,*************** FINISHED SOLVE FOR LS 1 *************
*get,_wallasol,active,,time,wall
/post1
xmlo,ENCODING,ISO-8859-1
xmlo,parm
/xml,parm,xml
fini
/gopr
*get,_walldone,active,,time,wall
_preptime=(_wallbsol-_wallstrt)*3600
_solvtime=(_wallasol-_wallbsol)*3600
_posttime=(_walldone-_wallasol)*3600
_totaltim=(_walldone-_wallstrt)*3600
/wb,file,end               ! done with WB generated input
