<?xml version="1.0" encoding="ISO-8859-1"?>
<febio_spec version="2.5">
	<Module type="solid"/>
	<Globals>
		<Constants>
			<T>0</T>
			<R>0</R>
			<Fc>0</Fc>
		</Constants>
	</Globals>
	<Material>
		<material id="1" name="Material4" type="orthotropic elastic">
			<density>1470</density>
			<E1>1e+009</E1>
			<E2>4e+006</E2>
			<E3>1e+009</E3>
			<G12>3.3e+008</G12>
			<G23>100000</G23>
			<G31>5e+006</G31>
			<v12>0.5</v12>
			<v23>0.0012</v23>
			<v31>-0.99</v31>
		</material>
	</Material>
	<Geometry>
		<Nodes name="Object06">
			<node id="1"> 1.5000000e+001, 0.0000000e+000, 0.0000000e+000</node>
			<node id="2"> 1.7250000e+001, 0.0000000e+000, 0.0000000e+000</node>
			<node id="3"> 1.9500000e+001, 0.0000000e+000, 0.0000000e+000</node>
			<node id="4"> 2.1750000e+001, 0.0000000e+000, 0.0000000e+000</node>
			<node id="5"> 2.4000000e+001, 0.0000000e+000, 0.0000000e+000</node>
			<node id="6"> 1.4711779e+001, 2.9263548e+000, 0.0000000e+000</node>
			<node id="7"> 1.6918546e+001, 3.3653080e+000, 0.0000000e+000</node>
			<node id="8"> 1.9125313e+001, 3.8042612e+000, 0.0000000e+000</node>
			<node id="9"> 2.1332080e+001, 4.2432144e+000, 0.0000000e+000</node>
			<node id="10"> 2.3538847e+001, 4.6821676e+000, 0.0000000e+000</node>
			<node id="11"> 1.3858193e+001, 5.7402514e+000, 0.0000000e+000</node>
			<node id="12"> 1.5936922e+001, 6.6012891e+000, 0.0000000e+000</node>
			<node id="13"> 1.8015651e+001, 7.4623268e+000, 0.0000000e+000</node>
			<node id="14"> 2.0094380e+001, 8.3233645e+000, 0.0000000e+000</node>
			<node id="15"> 2.2173109e+001, 9.1844022e+000, 0.0000000e+000</node>
			<node id="16"> 1.2472044e+001, 8.3335534e+000, 0.0000000e+000</node>
			<node id="17"> 1.4342851e+001, 9.5835864e+000, 0.0000000e+000</node>
			<node id="18"> 1.6213658e+001, 1.0833619e+001, 0.0000000e+000</node>
			<node id="19"> 1.8084464e+001, 1.2083652e+001, 0.0000000e+000</node>
			<node id="20"> 1.9955271e+001, 1.3333685e+001, 0.0000000e+000</node>
<!-- ... 1420 like lines cut -->
		</Nodes>
		<Elements type="hex8" mat="1" name="Part1">
			<elem id="1">     1,     2,     7,     6,   161,   162,   167,   166</elem>
			<elem id="2">     2,     3,     8,     7,   162,   163,   168,   167</elem>
			<elem id="3">     3,     4,     9,     8,   163,   164,   169,   168</elem>
			<elem id="4">     4,     5,    10,     9,   164,   165,   170,   169</elem>
			<elem id="5">     6,     7,    12,    11,   166,   167,   172,   171</elem>
			<elem id="6">     7,     8,    13,    12,   167,   168,   173,   172</elem>
			<elem id="7">     8,     9,    14,    13,   168,   169,   174,   173</elem>
			<elem id="8">     9,    10,    15,    14,   169,   170,   175,   174</elem>
			<elem id="9">    11,    12,    17,    16,   171,   172,   177,   176</elem>
			<elem id="10">    12,    13,    18,    17,   172,   173,   178,   177</elem>
			<elem id="11">    13,    14,    19,    18,   173,   174,   179,   178</elem>
			<elem id="12">    14,    15,    20,    19,   174,   175,   180,   179</elem>
			<elem id="13">    16,    17,    22,    21,   176,   177,   182,   181</elem>
			<elem id="14">    17,    18,    23,    22,   177,   178,   183,   182</elem>
			<elem id="15">    18,    19,    24,    23,   178,   179,   184,   183</elem>
			<elem id="16">    19,    20,    25,    24,   179,   180,   185,   184</elem>
			<elem id="17">    21,    22,    27,    26,   181,   182,   187,   186</elem>
			<elem id="18">    22,    23,    28,    27,   182,   183,   188,   187</elem>
			<elem id="19">    23,    24,    29,    28,   183,   184,   189,   188</elem>
			<elem id="20">    24,    25,    30,    29,   184,   185,   190,   189</elem>
<!-- ... 1004 like lines cut -->
		</Elements>
		<NodeSet name="FixedDisplacement1">
			<node id="1"/>
			<node id="2"/>
			<node id="3"/>
			<node id="4"/>
			<node id="5"/>
			<node id="6"/>
			<node id="7"/>
			<node id="8"/>
			<node id="9"/>
			<node id="10"/>
			<node id="11"/>
			<node id="12"/>
			<node id="13"/>
			<node id="14"/>
			<node id="15"/>
			<node id="16"/>
			<node id="17"/>
			<node id="18"/>
			<node id="19"/>
			<node id="20"/>
<!-- ... 620 like lines cut -->
		</NodeSet>
		<NodeSet name="FixedDisplacement2">
			<node id="1281"/>
			<node id="1282"/>
			<node id="1283"/>
			<node id="1284"/>
			<node id="1285"/>
			<node id="1286"/>
			<node id="1287"/>
			<node id="1288"/>
			<node id="1289"/>
			<node id="1290"/>
			<node id="1291"/>
			<node id="1292"/>
			<node id="1293"/>
			<node id="1294"/>
			<node id="1295"/>
			<node id="1296"/>
			<node id="1297"/>
			<node id="1298"/>
			<node id="1299"/>
			<node id="1300"/>
<!-- ... 620 like lines cut -->
		</NodeSet>
		<NodeSet name="NodalLoad1">
			<node id="715"/>
			<node id="720"/>
			<node id="725"/>
			<node id="730"/>
			<node id="735"/>
		</NodeSet>
	</Geometry>
	<Boundary>
		<fix bc="x,y,z" node_set="FixedDisplacement1"/>
		<fix bc="x,y,z" node_set="FixedDisplacement2"/>
	</Boundary>
	<LoadData>
		<loadcurve id="1" type="smooth">
			<point>0,0</point>
			<point>1,1</point>
		</loadcurve>
	</LoadData>
	<Output>
		<plotfile type="febio">
			<var type="displacement"/>
			<var type="stress"/>
		</plotfile>
	</Output>
	<Step name="Step1">
		<Control>
			<time_steps>10</time_steps>
			<step_size>0.1</step_size>
			<max_refs>15</max_refs>
			<max_ups>10</max_ups>
			<diverge_reform>1</diverge_reform>
			<reform_each_time_step>1</reform_each_time_step>
			<dtol>0.001</dtol>
			<etol>0.01</etol>
			<rtol>0</rtol>
			<lstol>0.9</lstol>
			<min_residual>1e-020</min_residual>
			<qnmethod>0</qnmethod>
			<time_stepper>
				<dtmin>0.01</dtmin>
				<dtmax>0.1</dtmax>
				<max_retries>5</max_retries>
				<opt_iter>10</opt_iter>
			</time_stepper>
			<analysis type="static"/>
		</Control>
		<Loads>
			<nodal_load bc="x" node_set="NodalLoad1">
				<scale lc="1">1e+006</scale>
			</nodal_load>
		</Loads>
	</Step>
</febio_spec>
